Alimentador_BandeirantesPR/Cabos.dss
New LineCode.000002548001010003_1  nphases=1 BaseFreq=60  R1=2.18  X1=0.3873 Units=km normamps=90
New LineCode.000002548001010003_2  nphases=2 BaseFreq=60  R1=2.18  X1=0.3873 Units=km normamps=90
New LineCode.000002548001010003_3  nphases=3 BaseFreq=60  R1=2.18  X1=0.3873 Units=km normamps=90
New LineCode.000002548001010003_4  nphases=4 BaseFreq=60  R1=2.18  X1=0.3873 Units=km normamps=90
New LineCode.000002548201010003_1  nphases=1 BaseFreq=60  R1=2.18  X1=0.3873 Units=km normamps=79
New LineCode.000002548201010003_2  nphases=2 BaseFreq=60  R1=2.18  X1=0.3873 Units=km normamps=79
New LineCode.000002548201010003_3  nphases=3 BaseFreq=60  R1=2.18  X1=0.3873 Units=km normamps=79
New LineCode.000002548201010003_4  nphases=4 BaseFreq=60  R1=2.18  X1=0.3873 Units=km normamps=79
New LineCode.000002548401010003_1  nphases=1 BaseFreq=60  R1=0.99  X1=0.3601 Units=km normamps=135
New LineCode.000002548401010003_2  nphases=2 BaseFreq=60  R1=0.99  X1=0.3601 Units=km normamps=135
New LineCode.000002548401010003_3  nphases=3 BaseFreq=60  R1=0.99  X1=0.3601 Units=km normamps=135
New LineCode.000002548401010003_4  nphases=4 BaseFreq=60  R1=0.99  X1=0.3601 Units=km normamps=135
New LineCode.000002548601010003_1  nphases=1 BaseFreq=60  R1=1.55  X1=0.3742 Units=km normamps=114
New LineCode.000002548601010003_2  nphases=2 BaseFreq=60  R1=1.55  X1=0.3742 Units=km normamps=114
New LineCode.000002548601010003_3  nphases=3 BaseFreq=60  R1=1.55  X1=0.3742 Units=km normamps=114
New LineCode.000002548601010003_4  nphases=4 BaseFreq=60  R1=1.55  X1=0.3742 Units=km normamps=114
New LineCode.000002548701010003_1  nphases=1 BaseFreq=60  R1=0.98  X1=0.3566 Units=km normamps=152
New LineCode.000002548701010003_2  nphases=2 BaseFreq=60  R1=0.98  X1=0.3566 Units=km normamps=152
New LineCode.000002548701010003_3  nphases=3 BaseFreq=60  R1=0.98  X1=0.3566 Units=km normamps=152
New LineCode.000002548701010003_4  nphases=4 BaseFreq=60  R1=0.98  X1=0.3566 Units=km normamps=152
New LineCode.000002548801010003_1  nphases=1 BaseFreq=60  R1=0.61  X1=0.3392 Units=km normamps=203
New LineCode.000002548801010003_2  nphases=2 BaseFreq=60  R1=0.61  X1=0.3392 Units=km normamps=203
New LineCode.000002548801010003_3  nphases=3 BaseFreq=60  R1=0.61  X1=0.3392 Units=km normamps=203
New LineCode.000002548801010003_4  nphases=4 BaseFreq=60  R1=0.61  X1=0.3392 Units=km normamps=203
New LineCode.000002548901010003_1  nphases=1 BaseFreq=60  R1=0.49  X1=0.3304 Units=km normamps=235
New LineCode.000002548901010003_2  nphases=2 BaseFreq=60  R1=0.49  X1=0.3304 Units=km normamps=235
New LineCode.000002548901010003_3  nphases=3 BaseFreq=60  R1=0.49  X1=0.3304 Units=km normamps=235
New LineCode.000002548901010003_4  nphases=4 BaseFreq=60  R1=0.49  X1=0.3304 Units=km normamps=235
New LineCode.000002549001010003_1  nphases=1 BaseFreq=60  R1=0.31  X1=0.3128 Units=km normamps=314
New LineCode.000002549001010003_2  nphases=2 BaseFreq=60  R1=0.31  X1=0.3128 Units=km normamps=314
New LineCode.000002549001010003_3  nphases=3 BaseFreq=60  R1=0.31  X1=0.3128 Units=km normamps=314
New LineCode.000002549001010003_4  nphases=4 BaseFreq=60  R1=0.31  X1=0.3128 Units=km normamps=314
New LineCode.000002549601010003_1  nphases=1 BaseFreq=60  R1=1.55  X1=0.4097 Units=km normamps=116
New LineCode.000002549601010003_2  nphases=2 BaseFreq=60  R1=1.55  X1=0.4097 Units=km normamps=116
New LineCode.000002549601010003_3  nphases=3 BaseFreq=60  R1=1.55  X1=0.4097 Units=km normamps=116
New LineCode.000002549601010003_4  nphases=4 BaseFreq=60  R1=1.55  X1=0.4097 Units=km normamps=116
New LineCode.000002549701010003_1  nphases=1 BaseFreq=60  R1=0.98  X1=0.4132 Units=km normamps=155
New LineCode.000002549701010003_2  nphases=2 BaseFreq=60  R1=0.98  X1=0.4132 Units=km normamps=155
New LineCode.000002549701010003_3  nphases=3 BaseFreq=60  R1=0.98  X1=0.4132 Units=km normamps=155
New LineCode.000002549701010003_4  nphases=4 BaseFreq=60  R1=0.98  X1=0.4132 Units=km normamps=155
New LineCode.000002549901010003_1  nphases=1 BaseFreq=60  R1=0.49  X1=0.3982 Units=km normamps=239
New LineCode.000002549901010003_2  nphases=2 BaseFreq=60  R1=0.49  X1=0.3982 Units=km normamps=239
New LineCode.000002549901010003_3  nphases=3 BaseFreq=60  R1=0.49  X1=0.3982 Units=km normamps=239
New LineCode.000002549901010003_4  nphases=4 BaseFreq=60  R1=0.49  X1=0.3982 Units=km normamps=239
New LineCode.000002550001010003_1  nphases=1 BaseFreq=60  R1=0.31  X1=0.3627 Units=km normamps=320
New LineCode.000002550001010003_2  nphases=2 BaseFreq=60  R1=0.31  X1=0.3627 Units=km normamps=320
New LineCode.000002550001010003_3  nphases=3 BaseFreq=60  R1=0.31  X1=0.3627 Units=km normamps=320
New LineCode.000002550001010003_4  nphases=4 BaseFreq=60  R1=0.31  X1=0.3627 Units=km normamps=320
New LineCode.000002550501010003_1  nphases=1 BaseFreq=60  R1=1.56  X1=0.3958 Units=km normamps=120
New LineCode.000002550501010003_2  nphases=2 BaseFreq=60  R1=1.56  X1=0.3958 Units=km normamps=120
New LineCode.000002550501010003_3  nphases=3 BaseFreq=60  R1=1.56  X1=0.3958 Units=km normamps=120
New LineCode.000002550501010003_4  nphases=4 BaseFreq=60  R1=1.56  X1=0.3958 Units=km normamps=120
New LineCode.000002550601010003_1  nphases=1 BaseFreq=60  R1=0.98  X1=0.3782 Units=km normamps=170
New LineCode.000002550601010003_2  nphases=2 BaseFreq=60  R1=0.98  X1=0.3782 Units=km normamps=170
New LineCode.000002550601010003_3  nphases=3 BaseFreq=60  R1=0.98  X1=0.3782 Units=km normamps=170
New LineCode.000002550601010003_4  nphases=4 BaseFreq=60  R1=0.98  X1=0.3782 Units=km normamps=170
New LineCode.000002550701010003_1  nphases=1 BaseFreq=60  R1=0.62  X1=0.3566 Units=km normamps=230
New LineCode.000002550701010003_2  nphases=2 BaseFreq=60  R1=0.62  X1=0.3566 Units=km normamps=230
New LineCode.000002550701010003_3  nphases=3 BaseFreq=60  R1=0.62  X1=0.3566 Units=km normamps=230
New LineCode.000002550701010003_4  nphases=4 BaseFreq=60  R1=0.62  X1=0.3566 Units=km normamps=230
New LineCode.000002644701010003_1  nphases=1 BaseFreq=60  R1=2.47  X1=0.3917 Units=km normamps=85
New LineCode.000002644701010003_2  nphases=2 BaseFreq=60  R1=2.47  X1=0.3917 Units=km normamps=85
New LineCode.000002644701010003_3  nphases=3 BaseFreq=60  R1=2.47  X1=0.3917 Units=km normamps=85
New LineCode.000002644701010003_4  nphases=4 BaseFreq=60  R1=2.47  X1=0.3917 Units=km normamps=85
New LineCode.000002658001010003_1  nphases=1 BaseFreq=60  R1=0.6  X1=0.3558 Units=km normamps=235
New LineCode.000002658001010003_2  nphases=2 BaseFreq=60  R1=0.6  X1=0.3558 Units=km normamps=235
New LineCode.000002658001010003_3  nphases=3 BaseFreq=60  R1=0.6  X1=0.3558 Units=km normamps=235
New LineCode.000002658001010003_4  nphases=4 BaseFreq=60  R1=0.6  X1=0.3558 Units=km normamps=235
New LineCode.000002658701010003_1  nphases=1 BaseFreq=60  R1=0.31  X1=0.3306 Units=km normamps=252
New LineCode.000002658701010003_2  nphases=2 BaseFreq=60  R1=0.31  X1=0.3306 Units=km normamps=252
New LineCode.000002658701010003_3  nphases=3 BaseFreq=60  R1=0.31  X1=0.3306 Units=km normamps=252
New LineCode.000002658701010003_4  nphases=4 BaseFreq=60  R1=0.31  X1=0.3306 Units=km normamps=252
New LineCode.000002675301010003_1  nphases=1 BaseFreq=60  R1=0.6  X1=0.3589 Units=km normamps=145
New LineCode.000002675301010003_2  nphases=2 BaseFreq=60  R1=0.6  X1=0.3589 Units=km normamps=145
New LineCode.000002675301010003_3  nphases=3 BaseFreq=60  R1=0.6  X1=0.3589 Units=km normamps=145
New LineCode.000002675301010003_4  nphases=4 BaseFreq=60  R1=0.6  X1=0.3589 Units=km normamps=145
New LineCode.000002710801010003_1  nphases=1 BaseFreq=60  R1=1.31  X1=0.3958 Units=km normamps=120
New LineCode.000002710801010003_2  nphases=2 BaseFreq=60  R1=1.31  X1=0.3958 Units=km normamps=120
New LineCode.000002710801010003_3  nphases=3 BaseFreq=60  R1=1.31  X1=0.3958 Units=km normamps=120
New LineCode.000002710801010003_4  nphases=4 BaseFreq=60  R1=1.31  X1=0.3958 Units=km normamps=120
New LineCode.000002713401010003_1  nphases=1 BaseFreq=60  R1=0.99  X1=0.3601 Units=km normamps=150
New LineCode.000002713401010003_2  nphases=2 BaseFreq=60  R1=0.99  X1=0.3601 Units=km normamps=150
New LineCode.000002713401010003_3  nphases=3 BaseFreq=60  R1=0.99  X1=0.3601 Units=km normamps=150
New LineCode.000002713401010003_4  nphases=4 BaseFreq=60  R1=0.99  X1=0.3601 Units=km normamps=150
New LineCode.000002713601010003_1  nphases=1 BaseFreq=60  R1=0.51  X1=0.3342 Units=km normamps=215
New LineCode.000002713601010003_2  nphases=2 BaseFreq=60  R1=0.51  X1=0.3342 Units=km normamps=215
New LineCode.000002713601010003_3  nphases=3 BaseFreq=60  R1=0.51  X1=0.3342 Units=km normamps=215
New LineCode.000002713601010003_4  nphases=4 BaseFreq=60  R1=0.51  X1=0.3342 Units=km normamps=215
New LineCode.000002713701010003_1  nphases=1 BaseFreq=60  R1=0.29  X1=0.2764 Units=km normamps=308
New LineCode.000002713701010003_2  nphases=2 BaseFreq=60  R1=0.29  X1=0.2764 Units=km normamps=308
New LineCode.000002713701010003_3  nphases=3 BaseFreq=60  R1=0.29  X1=0.2764 Units=km normamps=308
New LineCode.000002713701010003_4  nphases=4 BaseFreq=60  R1=0.29  X1=0.2764 Units=km normamps=308
New LineCode.000004340601010003_1  nphases=1 BaseFreq=60  R1=0.036  X1=0.036 Units=km normamps=519
New LineCode.000004340601010003_2  nphases=2 BaseFreq=60  R1=0.036  X1=0.036 Units=km normamps=519
New LineCode.000004340601010003_3  nphases=3 BaseFreq=60  R1=0.036  X1=0.036 Units=km normamps=519
New LineCode.000004340601010003_4  nphases=4 BaseFreq=60  R1=0.036  X1=0.036 Units=km normamps=519
New LineCode.250710000003010503_1  nphases=1 BaseFreq=60  R1=0.11  X1=0.2658 Units=km normamps=400
New LineCode.250710000003010503_2  nphases=2 BaseFreq=60  R1=0.11  X1=0.2658 Units=km normamps=400
New LineCode.250710000003010503_3  nphases=3 BaseFreq=60  R1=0.11  X1=0.2658 Units=km normamps=400
New LineCode.250710000003010503_4  nphases=4 BaseFreq=60  R1=0.11  X1=0.2658 Units=km normamps=400
New LineCode.252732527303010703_1  nphases=1 BaseFreq=60  R1=2.08  X1=0.4022 Units=km normamps=63
New LineCode.252732527303010703_2  nphases=2 BaseFreq=60  R1=2.08  X1=0.4022 Units=km normamps=63
New LineCode.252732527303010703_3  nphases=3 BaseFreq=60  R1=2.08  X1=0.4022 Units=km normamps=63
New LineCode.252732527303010703_4  nphases=4 BaseFreq=60  R1=2.08  X1=0.4022 Units=km normamps=63
New LineCode.252850000001010303_1  nphases=1 BaseFreq=60  R1=0.99  X1=0.3566 Units=km normamps=155
New LineCode.252850000001010303_2  nphases=2 BaseFreq=60  R1=0.99  X1=0.3566 Units=km normamps=155
New LineCode.252850000001010303_3  nphases=3 BaseFreq=60  R1=0.99  X1=0.3566 Units=km normamps=155
New LineCode.252850000001010303_4  nphases=4 BaseFreq=60  R1=0.99  X1=0.3566 Units=km normamps=155
New LineCode.252850000002010303_1  nphases=1 BaseFreq=60  R1=0.99  X1=0.3566 Units=km normamps=155
New LineCode.252850000002010303_2  nphases=2 BaseFreq=60  R1=0.99  X1=0.3566 Units=km normamps=155
New LineCode.252850000002010303_3  nphases=3 BaseFreq=60  R1=0.99  X1=0.3566 Units=km normamps=155
New LineCode.252850000002010303_4  nphases=4 BaseFreq=60  R1=0.99  X1=0.3566 Units=km normamps=155
New LineCode.252850000003010303_1  nphases=1 BaseFreq=60  R1=0.99  X1=0.3566 Units=km normamps=155
New LineCode.252850000003010303_2  nphases=2 BaseFreq=60  R1=0.99  X1=0.3566 Units=km normamps=155
New LineCode.252850000003010303_3  nphases=3 BaseFreq=60  R1=0.99  X1=0.3566 Units=km normamps=155
New LineCode.252850000003010303_4  nphases=4 BaseFreq=60  R1=0.99  X1=0.3566 Units=km normamps=155
New LineCode.252852528503010703_1  nphases=1 BaseFreq=60  R1=0.99  X1=0.3566 Units=km normamps=155
New LineCode.252852528503010703_2  nphases=2 BaseFreq=60  R1=0.99  X1=0.3566 Units=km normamps=155
New LineCode.252852528503010703_3  nphases=3 BaseFreq=60  R1=0.99  X1=0.3566 Units=km normamps=155
New LineCode.252852528503010703_4  nphases=4 BaseFreq=60  R1=0.99  X1=0.3566 Units=km normamps=155
New LineCode.252852528504010703_1  nphases=1 BaseFreq=60  R1=0.99  X1=0.3566 Units=km normamps=155
New LineCode.252852528504010703_2  nphases=2 BaseFreq=60  R1=0.99  X1=0.3566 Units=km normamps=155
New LineCode.252852528504010703_3  nphases=3 BaseFreq=60  R1=0.99  X1=0.3566 Units=km normamps=155
New LineCode.252852528504010703_4  nphases=4 BaseFreq=60  R1=0.99  X1=0.3566 Units=km normamps=155
New LineCode.254790000001010403_1  nphases=1 BaseFreq=60  R1=2.18  X1=0.3865 Units=km normamps=80
New LineCode.254790000001010403_2  nphases=2 BaseFreq=60  R1=2.18  X1=0.3865 Units=km normamps=80
New LineCode.254790000001010403_3  nphases=3 BaseFreq=60  R1=2.18  X1=0.3865 Units=km normamps=80
New LineCode.254790000001010403_4  nphases=4 BaseFreq=60  R1=2.18  X1=0.3865 Units=km normamps=80
New LineCode.254790000002010403_1  nphases=1 BaseFreq=60  R1=2.18  X1=0.3865 Units=km normamps=80
New LineCode.254790000002010403_2  nphases=2 BaseFreq=60  R1=2.18  X1=0.3865 Units=km normamps=80
New LineCode.254790000002010403_3  nphases=3 BaseFreq=60  R1=2.18  X1=0.3865 Units=km normamps=80
New LineCode.254790000002010403_4  nphases=4 BaseFreq=60  R1=2.18  X1=0.3865 Units=km normamps=80
New LineCode.254792547901010403_1  nphases=1 BaseFreq=60  R1=2.18  X1=0.3865 Units=km normamps=80
New LineCode.254792547901010403_2  nphases=2 BaseFreq=60  R1=2.18  X1=0.3865 Units=km normamps=80
New LineCode.254792547901010403_3  nphases=3 BaseFreq=60  R1=2.18  X1=0.3865 Units=km normamps=80
New LineCode.254792547901010403_4  nphases=4 BaseFreq=60  R1=2.18  X1=0.3865 Units=km normamps=80
New LineCode.254792547902010403_1  nphases=1 BaseFreq=60  R1=2.18  X1=0.3865 Units=km normamps=80
New LineCode.254792547902010403_2  nphases=2 BaseFreq=60  R1=2.18  X1=0.3865 Units=km normamps=80
New LineCode.254792547902010403_3  nphases=3 BaseFreq=60  R1=2.18  X1=0.3865 Units=km normamps=80
New LineCode.254792547902010403_4  nphases=4 BaseFreq=60  R1=2.18  X1=0.3865 Units=km normamps=80
New LineCode.254792547903010403_1  nphases=1 BaseFreq=60  R1=2.18  X1=0.3865 Units=km normamps=80
New LineCode.254792547903010403_2  nphases=2 BaseFreq=60  R1=2.18  X1=0.3865 Units=km normamps=80
New LineCode.254792547903010403_3  nphases=3 BaseFreq=60  R1=2.18  X1=0.3865 Units=km normamps=80
New LineCode.254792547903010403_4  nphases=4 BaseFreq=60  R1=2.18  X1=0.3865 Units=km normamps=80
New LineCode.254792547904010403_1  nphases=1 BaseFreq=60  R1=2.18  X1=0.3865 Units=km normamps=80
New LineCode.254792547904010403_2  nphases=2 BaseFreq=60  R1=2.18  X1=0.3865 Units=km normamps=80
New LineCode.254792547904010403_3  nphases=3 BaseFreq=60  R1=2.18  X1=0.3865 Units=km normamps=80
New LineCode.254792547904010403_4  nphases=4 BaseFreq=60  R1=2.18  X1=0.3865 Units=km normamps=80
New LineCode.254792548002010403_1  nphases=1 BaseFreq=60  R1=2.18  X1=0.3865 Units=km normamps=80
New LineCode.254792548002010403_2  nphases=2 BaseFreq=60  R1=2.18  X1=0.3865 Units=km normamps=80
New LineCode.254792548002010403_3  nphases=3 BaseFreq=60  R1=2.18  X1=0.3865 Units=km normamps=80
New LineCode.254792548002010403_4  nphases=4 BaseFreq=60  R1=2.18  X1=0.3865 Units=km normamps=80
New LineCode.254792644703010403_1  nphases=1 BaseFreq=60  R1=2.18  X1=0.3865 Units=km normamps=80
New LineCode.254792644703010403_2  nphases=2 BaseFreq=60  R1=2.18  X1=0.3865 Units=km normamps=80
New LineCode.254792644703010403_3  nphases=3 BaseFreq=60  R1=2.18  X1=0.3865 Units=km normamps=80
New LineCode.254792644703010403_4  nphases=4 BaseFreq=60  R1=2.18  X1=0.3865 Units=km normamps=80
New LineCode.254800000001010403_1  nphases=1 BaseFreq=60  R1=2.18  X1=0.3873 Units=km normamps=90
New LineCode.254800000001010403_2  nphases=2 BaseFreq=60  R1=2.18  X1=0.3873 Units=km normamps=90
New LineCode.254800000001010403_3  nphases=3 BaseFreq=60  R1=2.18  X1=0.3873 Units=km normamps=90
New LineCode.254800000001010403_4  nphases=4 BaseFreq=60  R1=2.18  X1=0.3873 Units=km normamps=90
New LineCode.254800000002010403_1  nphases=1 BaseFreq=60  R1=2.18  X1=0.3873 Units=km normamps=90
New LineCode.254800000002010403_2  nphases=2 BaseFreq=60  R1=2.18  X1=0.3873 Units=km normamps=90
New LineCode.254800000002010403_3  nphases=3 BaseFreq=60  R1=2.18  X1=0.3873 Units=km normamps=90
New LineCode.254800000002010403_4  nphases=4 BaseFreq=60  R1=2.18  X1=0.3873 Units=km normamps=90
New LineCode.254802548001010403_1  nphases=1 BaseFreq=60  R1=2.18  X1=0.3873 Units=km normamps=90
New LineCode.254802548001010403_2  nphases=2 BaseFreq=60  R1=2.18  X1=0.3873 Units=km normamps=90
New LineCode.254802548001010403_3  nphases=3 BaseFreq=60  R1=2.18  X1=0.3873 Units=km normamps=90
New LineCode.254802548001010403_4  nphases=4 BaseFreq=60  R1=2.18  X1=0.3873 Units=km normamps=90
New LineCode.254802548002010403_1  nphases=1 BaseFreq=60  R1=2.18  X1=0.3873 Units=km normamps=90
New LineCode.254802548002010403_2  nphases=2 BaseFreq=60  R1=2.18  X1=0.3873 Units=km normamps=90
New LineCode.254802548002010403_3  nphases=3 BaseFreq=60  R1=2.18  X1=0.3873 Units=km normamps=90
New LineCode.254802548002010403_4  nphases=4 BaseFreq=60  R1=2.18  X1=0.3873 Units=km normamps=90
New LineCode.254802548003010403_1  nphases=1 BaseFreq=60  R1=2.18  X1=0.3873 Units=km normamps=90
New LineCode.254802548003010403_2  nphases=2 BaseFreq=60  R1=2.18  X1=0.3873 Units=km normamps=90
New LineCode.254802548003010403_3  nphases=3 BaseFreq=60  R1=2.18  X1=0.3873 Units=km normamps=90
New LineCode.254802548003010403_4  nphases=4 BaseFreq=60  R1=2.18  X1=0.3873 Units=km normamps=90
New LineCode.254802548004010403_1  nphases=1 BaseFreq=60  R1=2.18  X1=0.3873 Units=km normamps=90
New LineCode.254802548004010403_2  nphases=2 BaseFreq=60  R1=2.18  X1=0.3873 Units=km normamps=90
New LineCode.254802548004010403_3  nphases=3 BaseFreq=60  R1=2.18  X1=0.3873 Units=km normamps=90
New LineCode.254802548004010403_4  nphases=4 BaseFreq=60  R1=2.18  X1=0.3873 Units=km normamps=90
New LineCode.254802548103010403_1  nphases=1 BaseFreq=60  R1=2.18  X1=0.3873 Units=km normamps=90
New LineCode.254802548103010403_2  nphases=2 BaseFreq=60  R1=2.18  X1=0.3873 Units=km normamps=90
New LineCode.254802548103010403_3  nphases=3 BaseFreq=60  R1=2.18  X1=0.3873 Units=km normamps=90
New LineCode.254802548103010403_4  nphases=4 BaseFreq=60  R1=2.18  X1=0.3873 Units=km normamps=90
New LineCode.254802548203010403_1  nphases=1 BaseFreq=60  R1=2.18  X1=0.3873 Units=km normamps=90
New LineCode.254802548203010403_2  nphases=2 BaseFreq=60  R1=2.18  X1=0.3873 Units=km normamps=90
New LineCode.254802548203010403_3  nphases=3 BaseFreq=60  R1=2.18  X1=0.3873 Units=km normamps=90
New LineCode.254802548203010403_4  nphases=4 BaseFreq=60  R1=2.18  X1=0.3873 Units=km normamps=90
New LineCode.254802548703010403_1  nphases=1 BaseFreq=60  R1=2.18  X1=0.3873 Units=km normamps=90
New LineCode.254802548703010403_2  nphases=2 BaseFreq=60  R1=2.18  X1=0.3873 Units=km normamps=90
New LineCode.254802548703010403_3  nphases=3 BaseFreq=60  R1=2.18  X1=0.3873 Units=km normamps=90
New LineCode.254802548703010403_4  nphases=4 BaseFreq=60  R1=2.18  X1=0.3873 Units=km normamps=90
New LineCode.254802548704010403_1  nphases=1 BaseFreq=60  R1=2.18  X1=0.3873 Units=km normamps=90
New LineCode.254802548704010403_2  nphases=2 BaseFreq=60  R1=2.18  X1=0.3873 Units=km normamps=90
New LineCode.254802548704010403_3  nphases=3 BaseFreq=60  R1=2.18  X1=0.3873 Units=km normamps=90
New LineCode.254802548704010403_4  nphases=4 BaseFreq=60  R1=2.18  X1=0.3873 Units=km normamps=90
New LineCode.254802549503010403_1  nphases=1 BaseFreq=60  R1=2.18  X1=0.3873 Units=km normamps=90
New LineCode.254802549503010403_2  nphases=2 BaseFreq=60  R1=2.18  X1=0.3873 Units=km normamps=90
New LineCode.254802549503010403_3  nphases=3 BaseFreq=60  R1=2.18  X1=0.3873 Units=km normamps=90
New LineCode.254802549503010403_4  nphases=4 BaseFreq=60  R1=2.18  X1=0.3873 Units=km normamps=90
...
