Alimentador_BandeirantesPR/SegmentosMT807560002.dss
New Line.360302099_MTNU  Phases=3  Bus1=MT917.1.2.3   Bus2=MT920.1.2.3   LineCode=254880000003010303_3  Length=0.03774  Units=km
New Line.360296645_MTUB  Phases=3  Bus1=MT3.1.2.3   Bus2=MT4.1.2.3   LineCode=266300000003010103_3  Length=0.004537  Units=km
New Line.930515406_MTUB  Phases=3  Bus1=MT5.1.2.3   Bus2=MT2135.1.2.3   LineCode=254870000003010303_3  Length=0.042901  Units=km
New Line.360296670_MTUB  Phases=3  Bus1=MT7.1.2.3   Bus2=MT8.1.2.3   LineCode=266300000003010103_3  Length=0.038205  Units=km
New Line.360296684_MTUB  Phases=3  Bus1=MT10.1.2.3   Bus2=MT11.1.2.3   LineCode=266300000003010103_3  Length=0.038205  Units=km
New Line.378618546_MTUB  Phases=3  Bus1=MT1149.1.2.3   Bus2=MT13.1.2.3   LineCode=266300000003010103_3  Length=0.005471  Units=km
New Line.360296700_MTUB  Phases=3  Bus1=MT16.1.2.3   Bus2=MT17.1.2.3   LineCode=266300000003010103_3  Length=0.032764  Units=km
New Line.360296711_MTUB  Phases=3  Bus1=MT18.1.2.3   Bus2=MT19.1.2.3   LineCode=266300000003010103_3  Length=0.005471  Units=km
New Line.378613810_MTUB  Phases=3  Bus1=MT1144.1.2.3   Bus2=MT1145.1.2.3   LineCode=254900000003010303_3  Length=0.030967  Units=km
New Line.360296725_MTUB  Phases=3  Bus1=MT21.1.2.3   Bus2=MT22.1.2.3   LineCode=266300000003010103_3  Length=0.005471  Units=km
New Line.378643920_MTUB  Phases=3  Bus1=MT25.1.2.3   Bus2=MT26.1.2.3   LineCode=254900000003010303_3  Length=0.007426  Units=km
New Line.378643917_MTUB  Phases=3  Bus1=MT1153.1.2.3   Bus2=MT28.1.2.3   LineCode=254900000003010303_3  Length=0.034201  Units=km
New Line.378706378_MTUB  Phases=3  Bus1=MT29.1.2.3   Bus2=MT30.1.2.3   LineCode=254900000003010303_3  Length=0.005498  Units=km
New Line.378706382_MTUB  Phases=3  Bus1=MT31.1.2.3   Bus2=MT32.1.2.3   LineCode=254900000003010303_3  Length=0.026775  Units=km
New Line.378765546_MTUB  Phases=3  Bus1=MT1172.1.2.3   Bus2=MT34.1.2.3   LineCode=254900000003010303_3  Length=0.005202  Units=km
New Line.378765495_MTUB  Phases=3  Bus1=MT1170.1.2.3   Bus2=MT36.1.2.3   LineCode=254900000003010303_3  Length=0.034201  Units=km
New Line.380540906_MTUB  Phases=3  Bus1=MT1206.1.2.3   Bus2=MT38.1.2.3   LineCode=254870000003010303_3  Length=0.024521  Units=km
New Line.360296753_MTUB  Phases=3  Bus1=MT38.1.2.3   Bus2=MT39.1.2.3   LineCode=254870000003010303_3  Length=0.025806  Units=km
New Line.576088056_MTUB  Phases=3  Bus1=MT1207.1.2.3   Bus2=MT1988.1.2.3   LineCode=254870000003010303_3  Length=0.025806  Units=km
New Line.378957367_MTUB  Phases=3  Bus1=MT927.1.2.3   Bus2=MT42.1.2.3   LineCode=254900000003010303_3  Length=0.011628  Units=km
New Line.360296781_MTUB  Phases=3  Bus1=MT42.1.2.3   Bus2=MT44.1.2.3   LineCode=254900000003010303_3  Length=0.017095  Units=km
New Line.360296795_MTUB  Phases=3  Bus1=MT46.1.2.3   Bus2=MT47.1.2.3   LineCode=254870000003010303_3  Length=0.008415  Units=km
New Line.360296809_MTUB  Phases=3  Bus1=MT48.1.2.3   Bus2=MT49.1.2.3   LineCode=254900000003010303_3  Length=0.058721  Units=km
New Line.558168361_MTUB  Phases=3  Bus1=MT1552.1.2.3   Bus2=MT56.1.2.3   LineCode=266300000003010103_3  Length=0.026644  Units=km
New Line.360296832_MTUB  Phases=3  Bus1=MT56.1.2.3   Bus2=MT57.1.2.3   LineCode=254870000003010303_3  Length=0.023878  Units=km
New Line.360296840_MTUB  Phases=3  Bus1=MT58.1.2.3   Bus2=MT59.1.2.3   LineCode=254870000003010303_3  Length=0.06322  Units=km
New Line.360296851_MTUB  Phases=3  Bus1=MT54.1.2.3   Bus2=MT60.1.2.3   LineCode=254870000003010303_3  Length=0.029702  Units=km
New Line.360296857_MTUB  Phases=3  Bus1=MT61.1.2.3   Bus2=MT62.1.2.3   LineCode=254870000003010303_3  Length=0.029029  Units=km
New Line.360296862_MTUB  Phases=3  Bus1=MT63.1.2.3   Bus2=MT64.1.2.3   LineCode=254870000003010303_3  Length=0.037128  Units=km
New Line.568061319_MTUB  Phases=3  Bus1=MT1163.1.2.3   Bus2=MT1928.1.2.3   LineCode=254880000003010303_3  Length=0.010649  Units=km
New Line.360296893_MTUB  Phases=3  Bus1=MT54.1.2.3   Bus2=MT65.1.2.3   LineCode=254870000003010303_3  Length=0.032252  Units=km
New Line.578230439_MTUB  Phases=3  Bus1=MT70.1.2.3   Bus2=MT71.1.2.3   LineCode=266300000003010103_3  Length=0.036276  Units=km
New Line.360296923_MTUB  Phases=3  Bus1=MT73.1.2.3   Bus2=MT74.1.2.3   LineCode=266300000003010103_3  Length=0.005471  Units=km
New Line.360296926_MTUB  Phases=3  Bus1=MT74.1.2.3   Bus2=MT75.1.2.3   LineCode=266300000003010103_3  Length=0.010597  Units=km
New Line.360296943_MTUB  Phases=3  Bus1=MT77.1.2.3   Bus2=MT78.1.2.3   LineCode=254870000003010303_3  Length=0.012985  Units=km
New Line.378897450_MTUB  Phases=3  Bus1=MT1177.1.2.3   Bus2=MT81.1.2.3   LineCode=266300000003010103_3  Length=0.034033  Units=km
New Line.360296960_MTUB  Phases=3  Bus1=MT79.1.2.3   Bus2=MT80.1.2.3   LineCode=254860000003010303_3  Length=0.017605  Units=km
New Line.384603939_MTUB  Phases=3  Bus1=MT82.1.2.3   Bus2=MT1184.1.2.3   LineCode=266300000003010103_3  Length=0.014778  Units=km
New Line.360296982_MTUB  Phases=3  Bus1=MT83.1.2.3   Bus2=MT84.1.2.3   LineCode=266300000003010103_3  Length=0.015753  Units=km
New Line.360296999_MTUB  Phases=3  Bus1=MT84.1.2.3   Bus2=MT85.1.2.3   LineCode=254890000003010303_3  Length=0.010649  Units=km
New Line.360297010_MTUB  Phases=3  Bus1=MT85.1.2.3   Bus2=MT86.1.2.3   LineCode=254890000003010303_3  Length=0.033221  Units=km
New Line.360297015_MTUB  Phases=3  Bus1=MT87.1.2.3   Bus2=MT88.1.2.3   LineCode=254890000003010303_3  Length=0.019054  Units=km
New Line.360297036_MTUB  Phases=3  Bus1=MT91.1.2.3   Bus2=MT92.1.2.3   LineCode=254870000003010303_3  Length=0.027469  Units=km
New Line.360297050_MTUB  Phases=3  Bus1=MT92.1.2.3   Bus2=MT93.1.2.3   LineCode=254870000003010303_3  Length=0.036863  Units=km
New Line.360297062_MTUB  Phases=3  Bus1=MT93.1.2.3   Bus2=MT94.1.2.3   LineCode=254870000003010303_3  Length=0.035873  Units=km
New Line.360297068_MTUB  Phases=3  Bus1=MT95.1.2.3   Bus2=MT96.1.2.3   LineCode=254870000003010303_3  Length=0.024674  Units=km
New Line.360297071_MTUB  Phases=3  Bus1=MT96.1.2.3   Bus2=MT97.1.2.3   LineCode=254870000003010303_3  Length=0.04133  Units=km
New Line.360297074_MTUB  Phases=3  Bus1=MT97.1.2.3   Bus2=MT98.1.2.3   LineCode=254870000003010303_3  Length=0.011036  Units=km
New Line.360297087_MTUB  Phases=3  Bus1=MT101.1.2.3   Bus2=MT102.1.2.3   LineCode=254870000003010303_3  Length=0.076694  Units=km
New Line.378903693_MTUB  Phases=3  Bus1=MT1195.1.2.3   Bus2=MT107.1.2.3   LineCode=254870000003010303_3  Length=0.036975  Units=km
New Line.378534164_MTUB  Phases=3  Bus1=MT1114.1.2.3   Bus2=MT110.1.2.3   LineCode=254870000003010303_3  Length=0.03517  Units=km
New Line.577963426_MTUB  Phases=3  Bus1=MT1997.1.2.3   Bus2=MT115.1.2.3   LineCode=254960000003010303_3  Length=0.059772  Units=km
New Line.360297133_MTUB  Phases=3  Bus1=MT117.1.2.3   Bus2=MT118.1.2.3   LineCode=254960000003010303_3  Length=0.025194  Units=km
New Line.943398690_MTUB  Phases=3  Bus1=MT120.1.2.3   Bus2=MT121.1.2.3   LineCode=254960000003010303_3  Length=0.07753  Units=km
New Line.360297146_MTUB  Phases=2  Bus1=MT121.3.1   Bus2=MT122.3.1   LineCode=254960000002010303_2  Length=0.128928  Units=km
New Line.360297148_MTUB  Phases=2  Bus1=MT122.3.1   Bus2=MT123.3.1   LineCode=254960000002010303_2  Length=0.094554  Units=km
New Line.360297153_MTUB  Phases=2  Bus1=MT123.3.1   Bus2=MT124.3.1   LineCode=254960000002010303_2  Length=0.182254  Units=km
New Line.360297163_MTUB  Phases=2  Bus1=MT123.3.1   Bus2=MT125.3.1   LineCode=254960000002010303_2  Length=0.055162  Units=km
New Line.360297192_MTUB  Phases=3  Bus1=MT126.1.2.3   Bus2=MT127.1.2.3   LineCode=254960000003010303_3  Length=0.105437  Units=km
New Line.360297196_MTUB  Phases=3  Bus1=MT127.1.2.3   Bus2=MT128.1.2.3   LineCode=254960000003010303_3  Length=0.152837  Units=km
New Line.360297199_MTUB  Phases=3  Bus1=MT128.1.2.3   Bus2=MT129.1.2.3   LineCode=254960000003010303_3  Length=0.050225  Units=km
New Line.360297206_MTNU  Phases=3  Bus1=MT130.1.2.3   Bus2=MT131.1.2.3   LineCode=254960000003010303_3  Length=0.299023  Units=km
New Line.360297230_MTNU  Phases=3  Bus1=MT133.1.2.3   Bus2=MT134.1.2.3   LineCode=254960000003010303_3  Length=0.010506  Units=km
New Line.562500371_MTNU  Phases=3  Bus1=MT1718.1.2.3   Bus2=MT1463.1.2.3   LineCode=254960000003010303_3  Length=0.088179  Units=km
New Line.562500378_MTNU  Phases=3  Bus1=MT1720.1.2.3   Bus2=MT1721.1.2.3   LineCode=254960000003010303_3  Length=0.062118  Units=km
New Line.360297256_MTNU  Phases=3  Bus1=MT135.1.2.3   Bus2=MT136.1.2.3   LineCode=254960000003010303_3  Length=0.080396  Units=km
New Line.360297268_MTNU  Phases=3  Bus1=MT136.1.2.3   Bus2=MT137.1.2.3   LineCode=254960000003010303_3  Length=0.054213  Units=km
New Line.562500395_MTNU  Phases=3  Bus1=MT1724.1.2.3   Bus2=MT1725.1.2.3   LineCode=254960000003010303_3  Length=0.317557  Units=km
New Line.360297278_MTNU  Phases=3  Bus1=MT138.1.2.3   Bus2=MT139.1.2.3   LineCode=255050000003010303_3  Length=0.048889  Units=km
New Line.360297293_MTNU  Phases=3  Bus1=MT140.1.2.3   Bus2=MT141.1.2.3   LineCode=254960000003010303_3  Length=0.124991  Units=km
New Line.562501494_MTNU  Phases=3  Bus1=MT1744.1.2.3   Bus2=MT1745.1.2.3   LineCode=254960000003010303_3  Length=0.076041  Units=km
New Line.562506281_MTNU  Phases=3  Bus1=MT1762.1.2.3   Bus2=MT142.1.2.3   LineCode=254960000003010303_3  Length=0.128081  Units=km
New Line.888569712_MTNU  Phases=3  Bus1=MT1767.1.2.3   Bus2=MT144.1.2.3   LineCode=254960000003010303_3  Length=0.0918  Units=km
New Line.562506312_MTNU  Phases=3  Bus1=MT1769.1.2.3   Bus2=MT1770.1.2.3   LineCode=254960000003010303_3  Length=0.077551  Units=km
New Line.562506338_MTNU  Phases=3  Bus1=MT1775.1.2.3   Bus2=MT1776.1.2.3   LineCode=255050000003010303_3  Length=0.089485  Units=km
New Line.584597249_MTNU  Phases=3  Bus1=MT2068.1.2.3   Bus2=MT146.1.2.3   LineCode=262230000003010303_3  Length=0.010506  Units=km
New Line.360297351_MTNU  Phases=3  Bus1=MT146.1.2.3   Bus2=MT147.1.2.3   LineCode=262230000003010303_3  Length=0.228806  Units=km
New Line.360297355_MTNU  Phases=3  Bus1=MT147.1.2.3   Bus2=MT148.1.2.3   LineCode=262230000003010303_3  Length=0.206754  Units=km
New Line.562506348_MTNU  Phases=3  Bus1=MT1781.1.2.3   Bus2=MT149.1.2.3   LineCode=262230000003010303_3  Length=0.185803  Units=km
New Line.562502849_MTNU  Phases=2  Bus1=MT1755.3.1   Bus2=MT1756.3.1   LineCode=262230000002010303_2  Length=0.136394  Units=km
New Line.927355382_MTNU  Phases=3  Bus1=MT150.1.2.3   Bus2=MT1752.1.2.3   LineCode=262230000003010303_3  Length=0.184079  Units=km
New Line.562502834_MTNU  Phases=3  Bus1=MT1753.1.2.3   Bus2=MT151.1.2.3   LineCode=262230000003010303_3  Length=0.102184  Units=km
New Line.360297389_MTNU  Phases=2  Bus1=MT151.3.1   Bus2=MT152.3.1   LineCode=262230000002010303_2  Length=0.093177  Units=km
New Line.360297393_MTNU  Phases=2  Bus1=MT152.3.1   Bus2=MT153.3.1   LineCode=262230000002010303_2  Length=0.084038  Units=km
New Line.562502826_MTNU  Phases=2  Bus1=MT1751.3.1   Bus2=MT1746.3.1   LineCode=262230000002010303_2  Length=0.15146  Units=km
New Line.562502817_MTNU  Phases=2  Bus1=MT1749.3.1   Bus2=MT1750.3.1   LineCode=262230000002010303_2  Length=0.05916  Units=km
New Line.562506375_MTNU  Phases=3  Bus1=MT1785.1.2.3   Bus2=MT156.1.2.3   LineCode=254960000003010303_3  Length=0.095931  Units=km
New Line.562509089_MTNU  Phases=3  Bus1=MT157.1.2.3   Bus2=MT158.1.2.3   LineCode=254960000003010303_3  Length=0.091055  Units=km
New Line.360297473_MTNU  Phases=3  Bus1=MT158.1.2.3   Bus2=MT159.1.2.3   LineCode=254960000003010303_3  Length=0.006844  Units=km
New Line.562506388_MTNU  Phases=3  Bus1=MT1789.1.2.3   Bus2=MT160.1.2.3   LineCode=254960000003010303_3  Length=0.072767  Units=km
New Line.360297489_MTNU  Phases=3  Bus1=MT160.1.2.3   Bus2=MT161.1.2.3   LineCode=254960000003010303_3  Length=0.062618  Units=km
New Line.556451660_MTNU  Phases=3  Bus1=MT1521.1.2.3   Bus2=MT1522.1.2.3   LineCode=254960000003010303_3  Length=0.1275  Units=km
New Line.360297508_MTNU  Phases=3  Bus1=MT164.1.2.3   Bus2=MT165.1.2.3   LineCode=254960000003010303_3  Length=0.06937  Units=km
New Line.562506394_MTNU  Phases=3  Bus1=MT1790.1.2.3   Bus2=MT1791.1.2.3   LineCode=254960000003010303_3  Length=0.10099  Units=km
New Line.562506402_MTNU  Phases=3  Bus1=MT1793.1.2.3   Bus2=MT1794.1.2.3   LineCode=254960000003010303_3  Length=0.060262  Units=km
New Line.562506410_MTNU  Phases=3  Bus1=MT1796.1.2.3   Bus2=MT1797.1.2.3   LineCode=254960000003010303_3  Length=0.082681  Units=km
New Line.562506421_MTNU  Phases=3  Bus1=MT1800.1.2.3   Bus2=MT1801.1.2.3   LineCode=254960000003010303_3  Length=0.050011  Units=km
New Line.360297554_MTNU  Phases=3  Bus1=MT160.1.2.3   Bus2=MT166.1.2.3   LineCode=254960000003010303_3  Length=0.079907  Units=km
New Line.562510819_MTNU  Phases=3  Bus1=MT1803.1.2.3   Bus2=MT1804.1.2.3   LineCode=254960000003010303_3  Length=0.05047  Units=km
New Line.360297574_MTNU  Phases=3  Bus1=MT169.1.2.3   Bus2=MT170.1.2.3   LineCode=254960000003010303_3  Length=0.096033  Units=km
New Line.562506364_MTNU  Phases=3  Bus1=MT169.1.2.3   Bus2=MT1783.1.2.3   LineCode=254960000003010303_3  Length=0.074542  Units=km
New Line.360297592_MTNU  Phases=3  Bus1=MT171.1.2.3   Bus2=MT172.1.2.3   LineCode=255050000003010303_3  Length=0.014321  Units=km
New Line.360297612_MTNU  Phases=3  Bus1=MT173.1.2.3   Bus2=MT174.1.2.3   LineCode=254960000003010303_3  Length=0.16012  Units=km
New Line.360297621_MTNU  Phases=3  Bus1=MT174.1.2.3   Bus2=MT175.1.2.3   LineCode=254960000003010303_3  Length=0.092779  Units=km
New Line.556436775_MTNU  Phases=3  Bus1=MT1504.1.2.3   Bus2=MT180.1.2.3   LineCode=254960000003010303_3  Length=0.122828  Units=km
New Line.360297639_MTNU  Phases=3  Bus1=MT178.1.2.3   Bus2=MT179.1.2.3   LineCode=254960000003010303_3  Length=0.081529  Units=km
New Line.360297650_MTNU  Phases=3  Bus1=MT180.1.2.3   Bus2=MT181.1.2.3   LineCode=254960000003010303_3  Length=0.183304  Units=km
New Line.360297654_MTNU  Phases=3  Bus1=MT181.1.2.3   Bus2=MT182.1.2.3   LineCode=254960000003010303_3  Length=0.095207  Units=km
New Line.360297656_MTNU  Phases=3  Bus1=MT182.1.2.3   Bus2=MT183.1.2.3   LineCode=254960000003010303_3  Length=0.062251  Units=km
New Line.360297659_MTNU  Phases=3  Bus1=MT183.1.2.3   Bus2=MT184.1.2.3   LineCode=254960000003010303_3  Length=0.152031  Units=km
New Line.556248826_MTNU  Phases=3  Bus1=MT1422.1.2.3   Bus2=MT185.1.2.3   LineCode=254960000003010303_3  Length=0.091606  Units=km
New Line.562497203_MTNU  Phases=3  Bus1=MT186.1.2.3   Bus2=MT187.1.2.3   LineCode=254960000003010303_3  Length=0.129897  Units=km
New Line.562602911_MTNU  Phases=3  Bus1=MT1807.1.2.3   Bus2=MT189.1.2.3   LineCode=254960000003010303_3  Length=0.056335  Units=km
New Line.360297681_MTNU  Phases=3  Bus1=MT189.1.2.3   Bus2=MT190.1.2.3   LineCode=254960000003010303_3  Length=0.043044  Units=km
New Line.360297692_MTNU  Phases=3  Bus1=MT189.1.2.3   Bus2=MT191.1.2.3   LineCode=254960000003010303_3  Length=0.086792  Units=km
New Line.562495272_MTNU  Phases=3  Bus1=MT1703.1.2.3   Bus2=MT192.1.2.3   LineCode=254960000003010303_3  Length=0.143269  Units=km
New Line.360297704_MTNU  Phases=2  Bus1=MT192.3.1   Bus2=MT193.3.1   LineCode=254960000002010303_2  Length=0.166311  Units=km
New Line.360297720_MTNU  Phases=2  Bus1=MT193.3.1   Bus2=MT194.3.1   LineCode=262230000002010303_2  Length=0.113261  Units=km
New Line.562495078_MTNU  Phases=3  Bus1=MT1687.1.2.3   Bus2=MT195.1.2.3   LineCode=254960000003010303_3  Length=0.105019  Units=km
New Line.360297736_MTNU  Phases=3  Bus1=MT195.1.2.3   Bus2=MT196.1.2.3   LineCode=254960000003010303_3  Length=0.083426  Units=km
New Line.360297747_MTNU  Phases=3  Bus1=MT195.1.2.3   Bus2=MT197.1.2.3   LineCode=254960000003010303_3  Length=0.081151  Units=km
New Line.360297750_MTNU  Phases=3  Bus1=MT197.1.2.3   Bus2=MT198.1.2.3   LineCode=254960000003010303_3  Length=0.0811  Units=km
New Line.360297761_MTNU  Phases=3  Bus1=MT199.1.2.3   Bus2=MT200.1.2.3   LineCode=254960000003010303_3  Length=0.085405  Units=km
New Line.562495070_MTNU  Phases=3  Bus1=MT1685.1.2.3   Bus2=MT201.1.2.3   LineCode=254960000003010303_3  Length=0.109497  Units=km
New Line.360297778_MTNU  Phases=3  Bus1=MT201.1.2.3   Bus2=MT202.1.2.3   LineCode=254960000003010303_3  Length=0.213802  Units=km
New Line.360297789_MTNU  Phases=3  Bus1=MT202.1.2.3   Bus2=MT203.1.2.3   LineCode=254960000003010303_3  Length=0.00612  Units=km
New Line.360297796_MTNU  Phases=2  Bus1=MT204.3.1   Bus2=MT205.3.1   LineCode=262230000002010303_2  Length=0.059588  Units=km
New Line.360297798_MTNU  Phases=2  Bus1=MT205.3.1   Bus2=MT206.3.1   LineCode=262230000002010303_2  Length=0.192454  Units=km
New Line.562497793_MTNU  Phases=2  Bus1=MT207.3.1   Bus2=MT208.3.1   LineCode=262230000002010303_2  Length=0.08516  Units=km
New Line.360297806_MTNU  Phases=2  Bus1=MT208.3.1   Bus2=MT209.3.1   LineCode=262230000002010303_2  Length=0.096818  Units=km
New Line.360297808_MTNU  Phases=2  Bus1=MT209.3.1   Bus2=MT210.3.1   LineCode=262230000002010303_2  Length=0.138751  Units=km
New Line.360297812_MTNU  Phases=2  Bus1=MT210.3.1   Bus2=MT211.3.1   LineCode=262230000002010303_2  Length=0.179153  Units=km
New Line.360297816_MTNU  Phases=2  Bus1=MT211.3.1   Bus2=MT212.3.1   LineCode=262230000002010303_2  Length=0.070788  Units=km
New Line.562495126_MTNU  Phases=2  Bus1=MT1700.3.1   Bus2=MT213.3.1   LineCode=262230000002010303_2  Length=0.234988  Units=km
New Line.360297832_MTNU  Phases=2  Bus1=MT213.3.1   Bus2=MT214.3.1   LineCode=264410000002010303_2  Length=0.051  Units=km
New Line.360297843_MTNU  Phases=2  Bus1=MT213.3.1   Bus2=MT215.3.1   LineCode=262230000002010303_2  Length=0.182713  Units=km
New Line.562495064_MTNU  Phases=3  Bus1=MT1683.1.2.3   Bus2=MT1684.1.2.3   LineCode=254960000003010303_3  Length=0.094289  Units=km
New Line.360297884_MTNU  Phases=3  Bus1=MT216.1.2.3   Bus2=MT217.1.2.3   LineCode=254960000003010303_3  Length=0.180091  Units=km
New Line.360297896_MTNU  Phases=3  Bus1=MT218.1.2.3   Bus2=MT219.1.2.3   LineCode=254960000003010303_3  Length=0.154683  Units=km
New Line.360297901_MTNU  Phases=2  Bus1=MT219.3.1   Bus2=MT220.3.1   LineCode=264410000002010303_2  Length=0.0515  Units=km
New Line.360297912_MTNU  Phases=3  Bus1=MT219.1.2.3   Bus2=MT221.1.2.3   LineCode=254960000003010303_3  Length=0.041004  Units=km
New Line.360297915_MTNU  Phases=3  Bus1=MT221.1.2.3   Bus2=MT222.1.2.3   LineCode=254960000003010303_3  Length=0.028417  Units=km
New Line.360297919_MTNU  Phases=2  Bus1=MT222.3.1   Bus2=MT223.3.1   LineCode=254960000002010303_2  Length=0.093065  Units=km
New Line.360297924_MTNU  Phases=2  Bus1=MT223.3.1   Bus2=MT224.3.1   LineCode=254960000002010303_2  Length=0.096084  Units=km
New Line.360297935_MTNU  Phases=3  Bus1=MT222.1.2.3   Bus2=MT225.1.2.3   LineCode=254960000003010303_3  Length=0.080784  Units=km
New Line.562493496_MTNU  Phases=3  Bus1=MT1678.1.2.3   Bus2=MT1679.1.2.3   LineCode=254960000003010303_3  Length=0.123185  Units=km
New Line.360297958_MTNU  Phases=3  Bus1=MT226.1.2.3   Bus2=MT227.1.2.3   LineCode=254960000003010303_3  Length=0.215628  Units=km
New Line.562491129_MTNU  Phases=3  Bus1=MT1669.1.2.3   Bus2=MT249.1.2.3   LineCode=254960000003010303_3  Length=0.047981  Units=km
New Line.562491140_MTNU  Phases=3  Bus1=MT1670.1.2.3   Bus2=MT1671.1.2.3   LineCode=254960000003010303_3  Length=0.069431  Units=km
New Line.360297985_MTNU  Phases=2  Bus1=MT228.3.1   Bus2=MT229.3.1   LineCode=262230000002010303_2  Length=0.644171  Units=km
New Line.360297989_MTNU  Phases=2  Bus1=MT229.3.1   Bus2=MT230.3.1   LineCode=262230000002010303_2  Length=0.382082  Units=km
New Line.360297994_MTNU  Phases=2  Bus1=MT230.3.1   Bus2=MT231.3.1   LineCode=262230000002010303_2  Length=0.11424  Units=km
New Line.360297996_MTNU  Phases=2  Bus1=MT231.3.1   Bus2=MT232.3.1   LineCode=262230000002010303_2  Length=0.506022  Units=km
New Line.562491148_MTNU  Phases=2  Bus1=MT1672.3.1   Bus2=MT233.3.1   LineCode=262230000002010303_2  Length=0.110201  Units=km
New Line.360298021_MTNU  Phases=2  Bus1=MT233.3.1   Bus2=MT234.3.1   LineCode=262230000002010303_2  Length=0.171605  Units=km
New Line.360298025_MTNU  Phases=2  Bus1=MT234.3.1   Bus2=MT235.3.1   LineCode=262230000002010303_2  Length=0.28303  Units=km
New Line.360298027_MTNU  Phases=2  Bus1=MT235.3.1   Bus2=MT236.3.1   LineCode=262230000002010303_2  Length=0.357469  Units=km
New Line.360298029_MTNU  Phases=2  Bus1=MT236.3.1   Bus2=MT237.3.1   LineCode=262230000002010303_2  Length=0.378655  Units=km
New Line.360298033_MTNU  Phases=2  Bus1=MT237.3.1   Bus2=MT238.3.1   LineCode=262230000002010303_2  Length=0.170564  Units=km
New Line.360298044_MTNU  Phases=2  Bus1=MT237.3.1   Bus2=MT239.3.1   LineCode=262230000002010303_2  Length=0.132855  Units=km
New Line.360298047_MTNU  Phases=2  Bus1=MT239.3.1   Bus2=MT240.3.1   LineCode=262230000002010303_2  Length=0.127806  Units=km
New Line.556257310_MTNU  Phases=2  Bus1=MT241.3.1   Bus2=MT242.3.1   LineCode=262230000002010303_2  Length=0.134895  Units=km
New Line.360298069_MTNU  Phases=2  Bus1=MT242.3.1   Bus2=MT243.3.1   LineCode=262230000002010303_2  Length=0.125695  Units=km
New Line.360298080_MTNU  Phases=2  Bus1=MT242.3.1   Bus2=MT244.3.1   LineCode=262230000002010303_2  Length=0.272075  Units=km
New Line.360298084_MTNU  Phases=2  Bus1=MT244.3.1   Bus2=MT245.3.1   LineCode=262230000002010303_2  Length=0.130468  Units=km
New Line.360298088_MTNU  Phases=2  Bus1=MT245.3.1   Bus2=MT246.3.1   LineCode=262230000002010303_2  Length=0.096563  Units=km
New Line.562491177_MTNU  Phases=2  Bus1=MT1674.3.1   Bus2=MT1675.3.1   LineCode=262230000002010303_2  Length=0.111221  Units=km
New Line.360298105_MTNU  Phases=2  Bus1=MT245.3.1   Bus2=MT247.3.1   LineCode=262230000002010303_2  Length=0.116321  Units=km
New Line.360298116_MTNU  Phases=2  Bus1=MT239.3.1   Bus2=MT248.3.1   LineCode=262230000002010303_2  Length=0.081733  Units=km
New Line.360298145_MTNU  Phases=3  Bus1=MT249.1.2.3   Bus2=MT250.1.2.3   LineCode=254960000003010303_3  Length=0.300574  Units=km
New Line.562491111_MTNU  Phases=3  Bus1=MT1667.1.2.3   Bus2=MT1664.1.2.3   LineCode=254960000003010303_3  Length=0.128846  Units=km
New Line.562487347_MTNU  Phases=3  Bus1=MT1655.1.2.3   Bus2=MT251.1.2.3   LineCode=254960000003010303_3  Length=0.070411  Units=km
New Line.562488533_MTNU  Phases=3  Bus1=MT1663.1.2.3   Bus2=MT1643.1.2.3   LineCode=254960000003010303_3  Length=0.127826  Units=km
New Line.562486800_MTNU  Phases=3  Bus1=MT1644.1.2.3   Bus2=MT253.1.2.3   LineCode=254960000003010303_3  Length=0.087088  Units=km
New Line.360298188_MTNU  Phases=2  Bus1=MT253.3.1   Bus2=MT254.3.1   LineCode=262230000002010303_2  Length=0.067442  Units=km
New Line.360298190_MTNU  Phases=2  Bus1=MT254.3.1   Bus2=MT255.3.1   LineCode=262230000002010303_2  Length=0.407062  Units=km
New Line.564754761_MTNU  Phases=2  Bus1=MT1651.3.1   Bus2=MT256.3.1   LineCode=262230000002010303_2  Length=0.018391  Units=km
New Line.564754796_MTNU  Phases=2  Bus1=MT257.3.1   Bus2=MT258.3.1   LineCode=262230000002010303_2  Length=0.057701  Units=km
New Line.360298199_MTNU  Phases=2  Bus1=MT258.3.1   Bus2=MT259.3.1   LineCode=262230000002010303_2  Length=0.117881  Units=km
New Line.360298202_MTNU  Phases=2  Bus1=MT259.3.1   Bus2=MT260.3.1   LineCode=262230000002010303_2  Length=0.135752  Units=km
New Line.360298205_MTNU  Phases=2  Bus1=MT260.3.1   Bus2=MT261.3.1   LineCode=262230000002010303_2  Length=0.137547  Units=km
New Line.360298225_MTNU  Phases=2  Bus1=MT256.3.1   Bus2=MT262.3.1   LineCode=262230000002010303_2  Length=0.066932  Units=km
New Line.562487304_MTNU  Phases=2  Bus1=MT1652.3.1   Bus2=MT1653.3.1   LineCode=262230000002010303_2  Length=0.123502  Units=km
New Line.360298271_MTNU  Phases=2  Bus1=MT253.3.1   Bus2=MT264.3.1   LineCode=254960000002010303_2  Length=0.212242  Units=km
New Line.562486795_MTNU  Phases=2  Bus1=MT1641.3.1   Bus2=MT1642.3.1   LineCode=254960000002010303_2  Length=0.073134  Units=km
New Line.562488749_MTNU  Phases=2  Bus1=MT994.3.1   Bus2=MT266.3.1   LineCode=254960000002010303_2  Length=0.077826  Units=km
New Line.360298326_MTNU  Phases=2  Bus1=MT268.3.1   Bus2=MT269.3.1   LineCode=262230000002010303_2  Length=0.017371  Units=km
New Line.360298328_MTNU  Phases=2  Bus1=MT269.3.1   Bus2=MT270.3.1   LineCode=262230000002010303_2  Length=0.453339  Units=km
New Line.360298337_MTNU  Phases=2  Bus1=MT270.3.1   Bus2=MT271.3.1   LineCode=262230000002010303_2  Length=0.211385  Units=km
New Line.360298341_MTNU  Phases=2  Bus1=MT271.3.1   Bus2=MT272.3.1   LineCode=254960000002010303_2  Length=0.098246  Units=km
New Line.360298348_MTNU  Phases=2  Bus1=MT271.3.1   Bus2=MT273.3.1   LineCode=262230000002010303_2  Length=0.163537  Units=km
New Line.360298352_MTNU  Phases=2  Bus1=MT273.3.1   Bus2=MT274.3.1   LineCode=262230000002010303_2  Length=0.292485  Units=km
New Line.360298363_MTNU  Phases=2  Bus1=MT273.3.1   Bus2=MT275.3.1   LineCode=262230000002010303_2  Length=0.109364  Units=km
New Line.360298367_MTNU  Phases=2  Bus1=MT275.3.1   Bus2=MT276.3.1   LineCode=262230000002010303_2  Length=0.07546  Units=km
New Line.562154035_MTNU  Phases=2  Bus1=MT277.3.1   Bus2=MT278.3.1   LineCode=262230000002010303_2  Length=0.149022  Units=km
New Line.360298381_MTNU  Phases=2  Bus1=MT278.3.1   Bus2=MT279.3.1   LineCode=262230000002010303_2  Length=0.067106  Units=km
New Line.360298384_MTNU  Phases=2  Bus1=MT279.3.1   Bus2=MT280.3.1   LineCode=262230000002010303_2  Length=0.304399  Units=km
New Line.360298395_MTNU  Phases=2  Bus1=MT279.3.1   Bus2=MT281.3.1   LineCode=262230000002010303_2  Length=0.208692  Units=km
New Line.360298399_MTNU  Phases=2  Bus1=MT281.3.1   Bus2=MT282.3.1   LineCode=262230000002010303_2  Length=0.149828  Units=km
New Line.360298403_MTNU  Phases=2  Bus1=MT282.3.1   Bus2=MT283.3.1   LineCode=262230000002010303_2  Length=0.204755  Units=km
...
